<routes>
            <vType accel="1.0" decel="4.5" id="standard_car" length="5.0" minGap="2.5" maxSpeed="25" sigma="0.5" />

            <route id="W_N" edges="1i 4o"/>
            <route id="W_E" edges="1i 2o"/>
            <route id="W_S" edges="1i 3o"/>
            <route id="N_W" edges="4i 1o"/>
            <route id="N_E" edges="4i 2o"/>
            <route id="N_S" edges="4i 3o"/>
            <route id="E_W" edges="2i 1o"/>
            <route id="E_N" edges="2i 4o"/>
            <route id="E_S" edges="2i 3o"/>
            <route id="S_W" edges="3i 1o"/>
            <route id="S_N" edges="3i 4o"/>
            <route id="S_E" edges="3i 2o"/>
    <vehicle id="W_E_0" type="standard_car" route="W_E" depart="0.0" departLane="random" departSpeed="10" />
    <vehicle id="W_E_1" type="standard_car" route="W_E" depart="0.0" departLane="random" departSpeed="10" />
    <vehicle id="W_E_2" type="standard_car" route="W_E" depart="0.0" departLane="random" departSpeed="10" />
    <vehicle id="E_S_3" type="standard_car" route="E_S" depart="0.0" departLane="random" departSpeed="10" />
    <vehicle id="E_N_4" type="standard_car" route="E_N" depart="0.0" departLane="random" departSpeed="10" />
    <vehicle id="W_S_5" type="standard_car" route="W_S" depart="0.0" departLane="random" departSpeed="10" />
    <vehicle id="W_S_6" type="standard_car" route="W_S" depart="0.0" departLane="random" departSpeed="10" />
    <vehicle id="E_W_7" type="standard_car" route="E_W" depart="0.0" departLane="random" departSpeed="10" />
    <vehicle id="W_N_8" type="standard_car" route="W_N" depart="0.0" departLane="random" departSpeed="10" />
    <vehicle id="S_N_9" type="standard_car" route="S_N" depart="0.0" departLane="random" departSpeed="10" />
    <vehicle id="S_N_10" type="standard_car" route="S_N" depart="0.0" departLane="random" departSpeed="10" />
    <vehicle id="E_W_11" type="standard_car" route="E_W" depart="0.0" departLane="random" departSpeed="10" />
    <vehicle id="E_W_12" type="standard_car" route="E_W" depart="0.0" departLane="random" departSpeed="10" />
    <vehicle id="W_N_13" type="standard_car" route="W_N" depart="0.0" departLane="random" departSpeed="10" />
    <vehicle id="W_E_14" type="standard_car" route="W_E" depart="0.0" departLane="random" departSpeed="10" />
    <vehicle id="W_E_15" type="standard_car" route="W_E" depart="0.0" departLane="random" departSpeed="10" />
    <vehicle id="S_N_16" type="standard_car" route="S_N" depart="0.0" departLane="random" departSpeed="10" />
    <vehicle id="W_S_17" type="standard_car" route="W_S" depart="0.0" departLane="random" departSpeed="10" />
    <vehicle id="E_N_18" type="standard_car" route="E_N" depart="0.0" departLane="random" departSpeed="10" />
    <vehicle id="W_E_19" type="standard_car" route="W_E" depart="0.0" departLane="random" departSpeed="10" />
    <vehicle id="S_N_20" type="standard_car" route="S_N" depart="0.0" departLane="random" departSpeed="10" />
    <vehicle id="S_N_21" type="standard_car" route="S_N" depart="0.0" departLane="random" departSpeed="10" />
    <vehicle id="W_E_22" type="standard_car" route="W_E" depart="0.0" departLane="random" departSpeed="10" />
    <vehicle id="N_S_23" type="standard_car" route="N_S" depart="0.0" departLane="random" departSpeed="10" />
    <vehicle id="E_S_24" type="standard_car" route="E_S" depart="0.0" departLane="random" departSpeed="10" />
    <vehicle id="S_N_25" type="standard_car" route="S_N" depart="0.0" departLane="random" departSpeed="10" />
    <vehicle id="W_N_26" type="standard_car" route="W_N" depart="0.0" departLane="random" departSpeed="10" />
    <vehicle id="E_S_27" type="standard_car" route="E_S" depart="0.0" departLane="random" departSpeed="10" />
    <vehicle id="N_S_28" type="standard_car" route="N_S" depart="0.0" departLane="random" departSpeed="10" />
    <vehicle id="N_S_29" type="standard_car" route="N_S" depart="0.0" departLane="random" departSpeed="10" />
    <vehicle id="E_W_30" type="standard_car" route="E_W" depart="0.0" departLane="random" departSpeed="10" />
    <vehicle id="S_N_31" type="standard_car" route="S_N" depart="0.0" departLane="random" departSpeed="10" />
    <vehicle id="N_S_32" type="standard_car" route="N_S" depart="0.0" departLane="random" departSpeed="10" />
    <vehicle id="S_N_33" type="standard_car" route="S_N" depart="0.0" departLane="random" departSpeed="10" />
    <vehicle id="W_S_34" type="standard_car" route="W_S" depart="0.0" departLane="random" departSpeed="10" />
    <vehicle id="E_N_35" type="standard_car" route="E_N" depart="0.0" departLane="random" departSpeed="10" />
    <vehicle id="S_N_36" type="standard_car" route="S_N" depart="0.0" departLane="random" departSpeed="10" />
    <vehicle id="W_E_37" type="standard_car" route="W_E" depart="0.0" departLane="random" departSpeed="10" />
    <vehicle id="N_S_38" type="standard_car" route="N_S" depart="0.0" departLane="random" departSpeed="10" />
    <vehicle id="S_N_39" type="standard_car" route="S_N" depart="0.0" departLane="random" departSpeed="10" />
    <vehicle id="E_S_40" type="standard_car" route="E_S" depart="0.0" departLane="random" departSpeed="10" />
    <vehicle id="E_S_41" type="standard_car" route="E_S" depart="0.0" departLane="random" departSpeed="10" />
    <vehicle id="S_N_42" type="standard_car" route="S_N" depart="0.0" departLane="random" departSpeed="10" />
    <vehicle id="E_W_43" type="standard_car" route="E_W" depart="0.0" departLane="random" departSpeed="10" />
    <vehicle id="S_N_44" type="standard_car" route="S_N" depart="0.0" departLane="random" departSpeed="10" />
    <vehicle id="W_E_45" type="standard_car" route="W_E" depart="0.0" departLane="random" departSpeed="10" />
    <vehicle id="W_E_46" type="standard_car" route="W_E" depart="0.0" departLane="random" departSpeed="10" />
    <vehicle id="W_S_47" type="standard_car" route="W_S" depart="0.0" departLane="random" departSpeed="10" />
    <vehicle id="E_S_48" type="standard_car" route="E_S" depart="0.0" departLane="random" departSpeed="10" />
    <vehicle id="E_S_49" type="standard_car" route="E_S" depart="0.0" departLane="random" departSpeed="10" />
    <vehicle id="E_N_50" type="standard_car" route="E_N" depart="0.0" departLane="random" departSpeed="10" />
    <vehicle id="W_E_51" type="standard_car" route="W_E" depart="0.0" departLane="random" departSpeed="10" />
    <vehicle id="E_W_52" type="standard_car" route="E_W" depart="0.0" departLane="random" departSpeed="10" />
    <vehicle id="N_S_53" type="standard_car" route="N_S" depart="0.0" departLane="random" departSpeed="10" />
    <vehicle id="W_N_54" type="standard_car" route="W_N" depart="0.0" departLane="random" departSpeed="10" />
    <vehicle id="E_W_55" type="standard_car" route="E_W" depart="0.0" departLane="random" departSpeed="10" />
    <vehicle id="E_N_56" type="standard_car" route="E_N" depart="0.0" departLane="random" departSpeed="10" />
    <vehicle id="E_W_57" type="standard_car" route="E_W" depart="0.0" departLane="random" departSpeed="10" />
    <vehicle id="E_N_58" type="standard_car" route="E_N" depart="0.0" departLane="random" departSpeed="10" />
    <vehicle id="E_N_59" type="standard_car" route="E_N" depart="0.0" departLane="random" departSpeed="10" />
    <vehicle id="E_N_60" type="standard_car" route="E_N" depart="0.0" departLane="random" departSpeed="10" />
    <vehicle id="E_S_61" type="standard_car" route="E_S" depart="0.0" departLane="random" departSpeed="10" />
    <vehicle id="W_S_62" type="standard_car" route="W_S" depart="0.0" departLane="random" departSpeed="10" />
    <vehicle id="W_E_63" type="standard_car" route="W_E" depart="0.0" departLane="random" departSpeed="10" />
    <vehicle id="N_S_64" type="standard_car" route="N_S" depart="0.0" departLane="random" departSpeed="10" />
    <vehicle id="W_N_65" type="standard_car" route="W_N" depart="0.0" departLane="random" departSpeed="10" />
    <vehicle id="W_E_66" type="standard_car" route="W_E" depart="0.0" departLane="random" departSpeed="10" />
    <vehicle id="E_N_67" type="standard_car" route="E_N" depart="0.0" departLane="random" departSpeed="10" />
    <vehicle id="N_S_68" type="standard_car" route="N_S" depart="0.0" departLane="random" departSpeed="10" />
    <vehicle id="E_N_69" type="standard_car" route="E_N" depart="0.0" departLane="random" departSpeed="10" />
    <vehicle id="E_S_70" type="standard_car" route="E_S" depart="0.0" departLane="random" departSpeed="10" />
    <vehicle id="N_S_71" type="standard_car" route="N_S" depart="0.0" departLane="random" departSpeed="10" />
    <vehicle id="S_N_72" type="standard_car" route="S_N" depart="0.0" departLane="random" departSpeed="10" />
    <vehicle id="S_N_73" type="standard_car" route="S_N" depart="0.0" departLane="random" departSpeed="10" />
    <vehicle id="E_S_74" type="standard_car" route="E_S" depart="0.0" departLane="random" departSpeed="10" />
    <vehicle id="W_S_75" type="standard_car" route="W_S" depart="450.0" departLane="random" departSpeed="10" />
    <vehicle id="E_N_76" type="standard_car" route="E_N" depart="450.0" departLane="random" departSpeed="10" />
    <vehicle id="N_S_77" type="standard_car" route="N_S" depart="450.0" departLane="random" departSpeed="10" />
    <vehicle id="E_W_78" type="standard_car" route="E_W" depart="450.0" departLane="random" departSpeed="10" />
    <vehicle id="E_N_79" type="standard_car" route="E_N" depart="450.0" departLane="random" departSpeed="10" />
    <vehicle id="E_W_80" type="standard_car" route="E_W" depart="450.0" departLane="random" departSpeed="10" />
    <vehicle id="E_S_81" type="standard_car" route="E_S" depart="450.0" departLane="random" departSpeed="10" />
    <vehicle id="S_N_82" type="standard_car" route="S_N" depart="450.0" departLane="random" departSpeed="10" />
    <vehicle id="W_E_83" type="standard_car" route="W_E" depart="450.0" departLane="random" departSpeed="10" />
    <vehicle id="E_N_84" type="standard_car" route="E_N" depart="450.0" departLane="random" departSpeed="10" />
    <vehicle id="N_S_85" type="standard_car" route="N_S" depart="450.0" departLane="random" departSpeed="10" />
    <vehicle id="N_S_86" type="standard_car" route="N_S" depart="450.0" departLane="random" departSpeed="10" />
    <vehicle id="N_S_87" type="standard_car" route="N_S" depart="450.0" departLane="random" departSpeed="10" />
    <vehicle id="W_N_88" type="standard_car" route="W_N" depart="450.0" departLane="random" departSpeed="10" />
    <vehicle id="W_S_89" type="standard_car" route="W_S" depart="450.0" departLane="random" departSpeed="10" />
    <vehicle id="E_S_90" type="standard_car" route="E_S" depart="450.0" departLane="random" departSpeed="10" />
    <vehicle id="E_S_91" type="standard_car" route="E_S" depart="450.0" departLane="random" departSpeed="10" />
    <vehicle id="S_N_92" type="standard_car" route="S_N" depart="450.0" departLane="random" departSpeed="10" />
    <vehicle id="N_S_93" type="standard_car" route="N_S" depart="450.0" departLane="random" departSpeed="10" />
    <vehicle id="S_N_94" type="standard_car" route="S_N" depart="450.0" departLane="random" departSpeed="10" />
    <vehicle id="W_E_95" type="standard_car" route="W_E" depart="450.0" departLane="random" departSpeed="10" />
    <vehicle id="W_E_96" type="standard_car" route="W_E" depart="450.0" departLane="random" departSpeed="10" />
    <vehicle id="E_W_97" type="standard_car" route="E_W" depart="450.0" departLane="random" departSpeed="10" />
    <vehicle id="W_N_98" type="standard_car" route="W_N" depart="450.0" departLane="random" departSpeed="10" />
    <vehicle id="E_W_99" type="standard_car" route="E_W" depart="450.0" departLane="random" departSpeed="10" />
    <vehicle id="E_W_100" type="standard_car" route="E_W" depart="450.0" departLane="random" departSpeed="10" />
    <vehicle id="W_E_101" type="standard_car" route="W_E" depart="450.0" departLane="random" departSpeed="10" />
    <vehicle id="W_E_102" type="standard_car" route="W_E" depart="450.0" departLane="random" departSpeed="10" />
    <vehicle id="S_N_103" type="standard_car" route="S_N" depart="450.0" departLane="random" departSpeed="10" />
    <vehicle id="N_S_104" type="standard_car" route="N_S" depart="450.0" departLane="random" departSpeed="10" />
    <vehicle id="W_S_105" type="standard_car" route="W_S" depart="450.0" departLane="random" departSpeed="10" />
    <vehicle id="E_W_106" type="standard_car" route="E_W" depart="450.0" departLane="random" departSpeed="10" />
    <vehicle id="E_N_107" type="standard_car" route="E_N" depart="450.0" departLane="random" departSpeed="10" />
    <vehicle id="W_N_108" type="standard_car" route="W_N" depart="450.0" departLane="random" departSpeed="10" />
    <vehicle id="E_N_109" type="standard_car" route="E_N" depart="450.0" departLane="random" departSpeed="10" />
    <vehicle id="E_W_110" type="standard_car" route="E_W" depart="450.0" departLane="random" departSpeed="10" />
    <vehicle id="W_E_111" type="standard_car" route="W_E" depart="450.0" departLane="random" departSpeed="10" />
    <vehicle id="E_S_112" type="standard_car" route="E_S" depart="450.0" departLane="random" departSpeed="10" />
    <vehicle id="W_N_113" type="standard_car" route="W_N" depart="450.0" departLane="random" departSpeed="10" />
    <vehicle id="N_S_114" type="standard_car" route="N_S" depart="450.0" departLane="random" departSpeed="10" />
    <vehicle id="E_S_115" type="standard_car" route="E_S" depart="450.0" departLane="random" departSpeed="10" />
    <vehicle id="W_N_116" type="standard_car" route="W_N" depart="450.0" departLane="random" departSpeed="10" />
    <vehicle id="E_S_117" type="standard_car" route="E_S" depart="450.0" departLane="random" departSpeed="10" />
    <vehicle id="E_S_118" type="standard_car" route="E_S" depart="450.0" departLane="random" departSpeed="10" />
    <vehicle id="E_W_119" type="standard_car" route="E_W" depart="450.0" departLane="random" departSpeed="10" />
    <vehicle id="E_N_120" type="standard_car" route="E_N" depart="450.0" departLane="random" departSpeed="10" />
    <vehicle id="W_S_121" type="standard_car" route="W_S" depart="450.0" departLane="random" departSpeed="10" />
    <vehicle id="W_S_122" type="standard_car" route="W_S" depart="450.0" departLane="random" departSpeed="10" />
    <vehicle id="W_S_123" type="standard_car" route="W_S" depart="450.0" departLane="random" departSpeed="10" />
    <vehicle id="E_S_124" type="standard_car" route="E_S" depart="450.0" departLane="random" departSpeed="10" />
    <vehicle id="E_S_125" type="standard_car" route="E_S" depart="450.0" departLane="random" departSpeed="10" />
    <vehicle id="W_E_126" type="standard_car" route="W_E" depart="450.0" departLane="random" departSpeed="10" />
    <vehicle id="E_W_127" type="standard_car" route="E_W" depart="450.0" departLane="random" departSpeed="10" />
    <vehicle id="E_S_128" type="standard_car" route="E_S" depart="450.0" departLane="random" departSpeed="10" />
    <vehicle id="N_S_129" type="standard_car" route="N_S" depart="450.0" departLane="random" departSpeed="10" />
    <vehicle id="W_E_130" type="standard_car" route="W_E" depart="450.0" departLane="random" departSpeed="10" />
    <vehicle id="W_N_131" type="standard_car" route="W_N" depart="450.0" departLane="random" departSpeed="10" />
    <vehicle id="N_S_132" type="standard_car" route="N_S" depart="450.0" departLane="random" departSpeed="10" />
    <vehicle id="W_N_133" type="standard_car" route="W_N" depart="450.0" departLane="random" departSpeed="10" />
    <vehicle id="N_S_134" type="standard_car" route="N_S" depart="450.0" departLane="random" departSpeed="10" />
    <vehicle id="W_S_135" type="standard_car" route="W_S" depart="450.0" departLane="random" departSpeed="10" />
    <vehicle id="W_S_136" type="standard_car" route="W_S" depart="450.0" departLane="random" departSpeed="10" />
    <vehicle id="W_S_137" type="standard_car" route="W_S" depart="450.0" departLane="random" departSpeed="10" />
    <vehicle id="E_N_138" type="standard_car" route="E_N" depart="450.0" departLane="random" departSpeed="10" />
    <vehicle id="E_W_139" type="standard_car" route="E_W" depart="450.0" departLane="random" departSpeed="10" />
    <vehicle id="E_S_140" type="standard_car" route="E_S" depart="450.0" departLane="random" departSpeed="10" />
    <vehicle id="W_N_141" type="standard_car" route="W_N" depart="450.0" departLane="random" departSpeed="10" />
    <vehicle id="W_E_142" type="standard_car" route="W_E" depart="450.0" departLane="random" departSpeed="10" />
    <vehicle id="E_S_143" type="standard_car" route="E_S" depart="450.0" departLane="random" departSpeed="10" />
    <vehicle id="W_N_144" type="standard_car" route="W_N" depart="450.0" departLane="random" departSpeed="10" />
    <vehicle id="W_E_145" type="standard_car" route="W_E" depart="450.0" departLane="random" departSpeed="10" />
    <vehicle id="W_S_146" type="standard_car" route="W_S" depart="450.0" departLane="random" departSpeed="10" />
    <vehicle id="W_S_147" type="standard_car" route="W_S" depart="450.0" departLane="random" departSpeed="10" />
    <vehicle id="W_S_148" type="standard_car" route="W_S" depart="450.0" departLane="random" departSpeed="10" />
    <vehicle id="W_S_149" type="standard_car" route="W_S" depart="450.0" departLane="random" departSpeed="10" />
    <vehicle id="E_N_150" type="standard_car" route="E_N" depart="450.0" departLane="random" departSpeed="10" />
    <vehicle id="W_E_151" type="standard_car" route="W_E" depart="450.0" departLane="random" departSpeed="10" />
    <vehicle id="E_N_152" type="standard_car" route="E_N" depart="450.0" departLane="random" departSpeed="10" />
    <vehicle id="S_N_153" type="standard_car" route="S_N" depart="450.0" departLane="random" departSpeed="10" />
    <vehicle id="N_S_154" type="standard_car" route="N_S" depart="450.0" departLane="random" departSpeed="10" />
    <vehicle id="W_S_155" type="standard_car" route="W_S" depart="450.0" departLane="random" departSpeed="10" />
    <vehicle id="E_S_156" type="standard_car" route="E_S" depart="450.0" departLane="random" departSpeed="10" />
    <vehicle id="N_S_157" type="standard_car" route="N_S" depart="450.0" departLane="random" departSpeed="10" />
    <vehicle id="E_N_158" type="standard_car" route="E_N" depart="450.0" departLane="random" departSpeed="10" />
    <vehicle id="W_E_159" type="standard_car" route="W_E" depart="450.0" departLane="random" departSpeed="10" />
    <vehicle id="E_S_160" type="standard_car" route="E_S" depart="450.0" departLane="random" departSpeed="10" />
    <vehicle id="E_N_161" type="standard_car" route="E_N" depart="450.0" departLane="random" departSpeed="10" />
    <vehicle id="W_S_162" type="standard_car" route="W_S" depart="450.0" departLane="random" departSpeed="10" />
    <vehicle id="W_E_163" type="standard_car" route="W_E" depart="450.0" departLane="random" departSpeed="10" />
    <vehicle id="E_S_164" type="standard_car" route="E_S" depart="450.0" departLane="random" departSpeed="10" />
    <vehicle id="S_N_165" type="standard_car" route="S_N" depart="450.0" departLane="random" departSpeed="10" />
    <vehicle id="W_N_166" type="standard_car" route="W_N" depart="450.0" departLane="random" departSpeed="10" />
    <vehicle id="S_N_167" type="standard_car" route="S_N" depart="450.0" departLane="random" departSpeed="10" />
    <vehicle id="W_S_168" type="standard_car" route="W_S" depart="450.0" departLane="random" departSpeed="10" />
    <vehicle id="E_W_169" type="standard_car" route="E_W" depart="450.0" departLane="random" departSpeed="10" />
    <vehicle id="E_N_170" type="standard_car" route="E_N" depart="450.0" departLane="random" departSpeed="10" />
    <vehicle id="W_E_171" type="standard_car" route="W_E" depart="450.0" departLane="random" departSpeed="10" />
    <vehicle id="S_N_172" type="standard_car" route="S_N" depart="450.0" departLane="random" departSpeed="10" />
    <vehicle id="W_N_173" type="standard_car" route="W_N" depart="450.0" departLane="random" departSpeed="10" />
    <vehicle id="E_W_174" type="standard_car" route="E_W" depart="450.0" departLane="random" departSpeed="10" />
    <vehicle id="W_N_175" type="standard_car" route="W_N" depart="450.0" departLane="random" departSpeed="10" />
    <vehicle id="N_S_176" type="standard_car" route="N_S" depart="450.0" departLane="random" departSpeed="10" />
    <vehicle id="W_N_177" type="standard_car" route="W_N" depart="450.0" departLane="random" departSpeed="10" />
    <vehicle id="W_S_178" type="standard_car" route="W_S" depart="450.0" departLane="random" departSpeed="10" />
    <vehicle id="S_N_179" type="standard_car" route="S_N" depart="450.0" departLane="random" departSpeed="10" />
    <vehicle id="E_N_180" type="standard_car" route="E_N" depart="450.0" departLane="random" departSpeed="10" />
    <vehicle id="E_N_181" type="standard_car" route="E_N" depart="450.0" departLane="random" departSpeed="10" />
    <vehicle id="E_W_182" type="standard_car" route="E_W" depart="450.0" departLane="random" departSpeed="10" />
    <vehicle id="W_N_183" type="standard_car" route="W_N" depart="450.0" departLane="random" departSpeed="10" />
    <vehicle id="E_N_184" type="standard_car" route="E_N" depart="450.0" departLane="random" departSpeed="10" />
    <vehicle id="S_N_185" type="standard_car" route="S_N" depart="450.0" departLane="random" departSpeed="10" />
    <vehicle id="N_S_186" type="standard_car" route="N_S" depart="450.0" departLane="random" departSpeed="10" />
    <vehicle id="E_W_187" type="standard_car" route="E_W" depart="450.0" departLane="random" departSpeed="10" />
    <vehicle id="W_E_188" type="standard_car" route="W_E" depart="450.0" departLane="random" departSpeed="10" />
    <vehicle id="W_N_189" type="standard_car" route="W_N" depart="450.0" departLane="random" departSpeed="10" />
    <vehicle id="W_N_190" type="standard_car" route="W_N" depart="450.0" departLane="random" departSpeed="10" />
    <vehicle id="S_N_191" type="standard_car" route="S_N" depart="450.0" departLane="random" departSpeed="10" />
    <vehicle id="S_N_192" type="standard_car" route="S_N" depart="450.0" departLane="random" departSpeed="10" />
    <vehicle id="E_S_193" type="standard_car" route="E_S" depart="450.0" departLane="random" departSpeed="10" />
    <vehicle id="E_S_194" type="standard_car" route="E_S" depart="450.0" departLane="random" departSpeed="10" />
    <vehicle id="W_E_195" type="standard_car" route="W_E" depart="450.0" departLane="random" departSpeed="10" />
    <vehicle id="E_S_196" type="standard_car" route="E_S" depart="450.0" departLane="random" departSpeed="10" />
    <vehicle id="W_S_197" type="standard_car" route="W_S" depart="450.0" departLane="random" departSpeed="10" />
    <vehicle id="W_N_198" type="standard_car" route="W_N" depart="450.0" departLane="random" departSpeed="10" />
    <vehicle id="W_N_199" type="standard_car" route="W_N" depart="900.0" departLane="random" departSpeed="10" />
    <vehicle id="S_N_200" type="standard_car" route="S_N" depart="900.0" departLane="random" departSpeed="10" />
    <vehicle id="N_S_201" type="standard_car" route="N_S" depart="900.0" departLane="random" departSpeed="10" />
    <vehicle id="E_S_202" type="standard_car" route="E_S" depart="900.0" departLane="random" departSpeed="10" />
    <vehicle id="S_N_203" type="standard_car" route="S_N" depart="900.0" departLane="random" departSpeed="10" />
    <vehicle id="N_S_204" type="standard_car" route="N_S" depart="900.0" departLane="random" departSpeed="10" />
    <vehicle id="S_N_205" type="standard_car" route="S_N" depart="900.0" departLane="random" departSpeed="10" />
    <vehicle id="W_E_206" type="standard_car" route="W_E" depart="900.0" departLane="random" departSpeed="10" />
    <vehicle id="E_S_207" type="standard_car" route="E_S" depart="900.0" departLane="random" departSpeed="10" />
    <vehicle id="S_N_208" type="standard_car" route="S_N" depart="900.0" departLane="random" departSpeed="10" />
    <vehicle id="E_S_209" type="standard_car" route="E_S" depart="900.0" departLane="random" departSpeed="10" />
    <vehicle id="W_E_210" type="standard_car" route="W_E" depart="900.0" departLane="random" departSpeed="10" />
    <vehicle id="W_S_211" type="standard_car" route="W_S" depart="900.0" departLane="random" departSpeed="10" />
    <vehicle id="S_N_212" type="standard_car" route="S_N" depart="900.0" departLane="random" departSpeed="10" />
    <vehicle id="N_S_213" type="standard_car" route="N_S" depart="900.0" departLane="random" departSpeed="10" />
    <vehicle id="W_S_214" type="standard_car" route="W_S" depart="900.0" departLane="random" departSpeed="10" />
    <vehicle id="E_N_215" type="standard_car" route="E_N" depart="900.0" departLane="random" departSpeed="10" />
    <vehicle id="N_S_216" type="standard_car" route="N_S" depart="900.0" departLane="random" departSpeed="10" />
    <vehicle id="N_S_217" type="standard_car" route="N_S" depart="900.0" departLane="random" departSpeed="10" />
    <vehicle id="N_S_218" type="standard_car" route="N_S" depart="900.0" departLane="random" departSpeed="10" />
    <vehicle id="S_N_219" type="standard_car" route="S_N" depart="900.0" departLane="random" departSpeed="10" />
    <vehicle id="E_S_220" type="standard_car" route="E_S" depart="900.0" departLane="random" departSpeed="10" />
    <vehicle id="W_N_221" type="standard_car" route="W_N" depart="900.0" departLane="random" departSpeed="10" />
    <vehicle id="W_N_222" type="standard_car" route="W_N" depart="900.0" departLane="random" departSpeed="10" />
    <vehicle id="E_N_223" type="standard_car" route="E_N" depart="900.0" departLane="random" departSpeed="10" />
    <vehicle id="N_S_224" type="standard_car" route="N_S" depart="900.0" departLane="random" departSpeed="10" />
    <vehicle id="W_N_225" type="standard_car" route="W_N" depart="900.0" departLane="random" departSpeed="10" />
    <vehicle id="E_N_226" type="standard_car" route="E_N" depart="900.0" departLane="random" departSpeed="10" />
    <vehicle id="E_W_227" type="standard_car" route="E_W" depart="900.0" departLane="random" departSpeed="10" />
    <vehicle id="E_N_228" type="standard_car" route="E_N" depart="900.0" departLane="random" departSpeed="10" />
    <vehicle id="E_W_229" type="standard_car" route="E_W" depart="900.0" departLane="random" departSpeed="10" />
    <vehicle id="E_N_230" type="standard_car" route="E_N" depart="900.0" departLane="random" departSpeed="10" />
    <vehicle id="E_S_231" type="standard_car" route="E_S" depart="900.0" departLane="random" departSpeed="10" />
    <vehicle id="W_E_232" type="standard_car" route="W_E" depart="900.0" departLane="random" departSpeed="10" />
    <vehicle id="E_N_233" type="standard_car" route="E_N" depart="900.0" departLane="random" departSpeed="10" />
    <vehicle id="E_N_234" type="standard_car" route="E_N" depart="900.0" departLane="random" departSpeed="10" />
    <vehicle id="E_W_235" type="standard_car" route="E_W" depart="900.0" departLane="random" departSpeed="10" />
    <vehicle id="E_S_236" type="standard_car" route="E_S" depart="900.0" departLane="random" departSpeed="10" />
    <vehicle id="E_N_237" type="standard_car" route="E_N" depart="900.0" departLane="random" departSpeed="10" />
    <vehicle id="S_N_238" type="standard_car" route="S_N" depart="900.0" departLane="random" departSpeed="10" />
    <vehicle id="E_N_239" type="standard_car" route="E_N" depart="900.0" departLane="random" departSpeed="10" />
    <vehicle id="W_E_240" type="standard_car" route="W_E" depart="900.0" departLane="random" departSpeed="10" />
    <vehicle id="S_N_241" type="standard_car" route="S_N" depart="900.0" departLane="random" departSpeed="10" />
    <vehicle id="W_S_242" type="standard_car" route="W_S" depart="900.0" departLane="random" departSpeed="10" />
    <vehicle id="S_N_243" type="standard_car" route="S_N" depart="900.0" departLane="random" departSpeed="10" />
    <vehicle id="W_E_244" type="standard_car" route="W_E" depart="900.0" departLane="random" departSpeed="10" />
    <vehicle id="W_S_245" type="standard_car" route="W_S" depart="900.0" departLane="random" departSpeed="10" />
    <vehicle id="E_W_246" type="standard_car" route="E_W" depart="900.0" departLane="random" departSpeed="10" />
    <vehicle id="N_S_247" type="standard_car" route="N_S" depart="900.0" departLane="random" departSpeed="10" />
    <vehicle id="W_N_248" type="standard_car" route="W_N" depart="900.0" departLane="random" departSpeed="10" />
    <vehicle id="E_S_249" type="standard_car" route="E_S" depart="900.0" departLane="random" departSpeed="10" />
    <vehicle id="E_N_250" type="standard_car" route="E_N" depart="900.0" departLane="random" departSpeed="10" />
    <vehicle id="E_W_251" type="standard_car" route="E_W" depart="900.0" departLane="random" departSpeed="10" />
    <vehicle id="N_S_252" type="standard_car" route="N_S" depart="900.0" departLane="random" departSpeed="10" />
    <vehicle id="W_S_253" type="standard_car" route="W_S" depart="900.0" departLane="random" departSpeed="10" />
    <vehicle id="S_N_254" type="standard_car" route="S_N" depart="900.0" departLane="random" departSpeed="10" />
    <vehicle id="S_N_255" type="standard_car" route="S_N" depart="900.0" departLane="random" departSpeed="10" />
    <vehicle id="W_N_256" type="standard_car" route="W_N" depart="900.0" departLane="random" departSpeed="10" />
    <vehicle id="S_N_257" type="standard_car" route="S_N" depart="900.0" departLane="random" departSpeed="10" />
    <vehicle id="N_S_258" type="standard_car" route="N_S" depart="900.0" departLane="random" departSpeed="10" />
    <vehicle id="E_W_259" type="standard_car" route="E_W" depart="900.0" departLane="random" departSpeed="10" />
    <vehicle id="E_W_260" type="standard_car" route="E_W" depart="900.0" departLane="random" departSpeed="10" />
    <vehicle id="W_S_261" type="standard_car" route="W_S" depart="900.0" departLane="random" departSpeed="10" />